# File generated by Flopy version 3.10.0 on 07/15/2026 at 07:15:42.
BEGIN options
  READASARRAYS
END options

BEGIN period  1
  recharge
    CONSTANT       0.00706139
END period  1

