# File generated by Flopy version 3.10.0 on 07/17/2026 at 16:06:20.
BEGIN options
END options

BEGIN griddata
  iconvert
    CONSTANT  1
  ss
    CONSTANT  1.00000000E-05
  sy
    CONSTANT       0.15000000
END griddata

BEGIN period  1
  TRANSIENT
END period  1

