# File generated by Flopy version 3.10.0 on 07/15/2026 at 07:15:42.
BEGIN options
  TIME_UNITS  days
END options

BEGIN dimensions
  NPER  1
END dimensions

BEGIN perioddata
     365.00000000  1       1.00000000
END perioddata

