# File generated by Flopy version 3.10.0 on 07/17/2026 at 16:06:20.
BEGIN options
  BUDGET  FILEOUT  groundwater.cbc
  HEAD  FILEOUT  groundwater.hds
END options

BEGIN period  1
  SAVE  HEAD  ALL
  SAVE  BUDGET  ALL
END period  1

