# File generated by Flopy version 3.10.0 on 07/17/2026 at 16:06:20.
BEGIN options
END options

BEGIN dimensions
  NLAY  1
  NROW  20
  NCOL  20
END dimensions

BEGIN griddata
  delr
    CONSTANT     500.00000000
  delc
    CONSTANT     500.00000000
  top
    CONSTANT      30.00000000
  botm
    CONSTANT     -30.00000000
END griddata

