# File generated by Flopy version 3.10.0 on 07/15/2026 at 07:15:42.
BEGIN options
  SAVE_FLOWS
END options

BEGIN packages
  DIS6  groundwater.dis  dis
  IC6  groundwater.ic  ic
  NPF6  groundwater.npf  npf
  STO6  groundwater.sto  sto
  RCH6  groundwater.rcha  rcha_0
  OC6  groundwater.oc  oc
END packages

