# File generated by Flopy version 3.10.0 on 07/15/2026 at 07:15:42.
BEGIN options
END options

BEGIN griddata
  strt
    CONSTANT      11.63933333
END griddata

