# File generated by Flopy version 3.10.0 on 07/17/2026 at 16:06:20.
BEGIN options
END options

