# File generated by Flopy version 3.10.0 on 07/15/2026 at 07:15:42.
BEGIN options
END options

BEGIN timing
  TDIS6  groundwater_model.tdis
END timing

BEGIN models
  gwf6  groundwater.nam  groundwater
END models

BEGIN exchanges
END exchanges

BEGIN solutiongroup  1
  ims6  groundwater_model.ims  groundwater
END solutiongroup  1

